
Version,
  8.7;                                    !- Version Identifier

LifeCycleCost:Parameters,
  {ca7522a2-67b5-47b0-a2d9-cd92c4127aa7}, !- Name
  EndOfYear,                              !- Discounting Convention
  ConstantDollar,                         !- Inflation Approach
  0.03,                                   !- Real Discount Rate
  ,                                       !- Nominal Discount Rate
  ,                                       !- Inflation
  ,                                       !- Base Date Month
  2011,                                   !- Base Date Year
  ,                                       !- Service Date Month
  2011,                                   !- Service Date Year
  25,                                     !- Length of Study Period in Years
  ,                                       !- Tax rate
  None;                                   !- Depreciation Method

LifeCycleCost:UsePriceEscalation,
  U.S. Avg  Commercial-Electricity,       !- Name
  Electricity,                            !- Resource
  2011,                                   !- Escalation Start Year
  January,                                !- Escalation Start Month
  0.9838,                                 !- Year Escalation 1
  0.9730,                                 !- Year Escalation 2
  0.9632,                                 !- Year Escalation 3
  0.9611,                                 !- Year Escalation 4
  0.9571,                                 !- Year Escalation 5
  0.9553,                                 !- Year Escalation 6
  0.9539,                                 !- Year Escalation 7
  0.9521,                                 !- Year Escalation 8
  0.9546,                                 !- Year Escalation 9
  0.9550,                                 !- Year Escalation 10
  0.9553,                                 !- Year Escalation 11
  0.9564,                                 !- Year Escalation 12
  0.9575,                                 !- Year Escalation 13
  0.9596,                                 !- Year Escalation 14
  0.9618,                                 !- Year Escalation 15
  0.9614,                                 !- Year Escalation 16
  0.9618,                                 !- Year Escalation 17
  0.9618,                                 !- Year Escalation 18
  0.9593,                                 !- Year Escalation 19
  0.9589,                                 !- Year Escalation 20
  0.9607,                                 !- Year Escalation 21
  0.9625,                                 !- Year Escalation 22
  0.9650,                                 !- Year Escalation 23
  0.9708,                                 !- Year Escalation 24
  0.9751,                                 !- Year Escalation 25
  0.9762,                                 !- Year Escalation 26
  0.9766,                                 !- Year Escalation 27
  0.9766,                                 !- Year Escalation 28
  0.9769,                                 !- Year Escalation 29
  0.9773;                                 !- Year Escalation 30

LifeCycleCost:UsePriceEscalation,
  U.S. Avg  Commercial-Distillate Oil,    !- Name
  FuelOil#1,                              !- Resource
  2011,                                   !- Escalation Start Year
  January,                                !- Escalation Start Month
  0.9714,                                 !- Year Escalation 1
  0.9730,                                 !- Year Escalation 2
  0.9942,                                 !- Year Escalation 3
  1.0164,                                 !- Year Escalation 4
  1.0541,                                 !- Year Escalation 5
  1.0928,                                 !- Year Escalation 6
  1.1267,                                 !- Year Escalation 7
  1.1580,                                 !- Year Escalation 8
  1.1792,                                 !- Year Escalation 9
  1.1967,                                 !- Year Escalation 10
  1.2200,                                 !- Year Escalation 11
  1.2333,                                 !- Year Escalation 12
  1.2566,                                 !- Year Escalation 13
  1.2709,                                 !- Year Escalation 14
  1.2826,                                 !- Year Escalation 15
  1.2985,                                 !- Year Escalation 16
  1.3102,                                 !- Year Escalation 17
  1.3250,                                 !- Year Escalation 18
  1.3261,                                 !- Year Escalation 19
  1.3282,                                 !- Year Escalation 20
  1.3324,                                 !- Year Escalation 21
  1.3356,                                 !- Year Escalation 22
  1.3431,                                 !- Year Escalation 23
  1.3510,                                 !- Year Escalation 24
  1.3568,                                 !- Year Escalation 25
  1.3606,                                 !- Year Escalation 26
  1.3637,                                 !- Year Escalation 27
  1.3674,                                 !- Year Escalation 28
  1.3706,                                 !- Year Escalation 29
  1.3743;                                 !- Year Escalation 30

LifeCycleCost:UsePriceEscalation,
  U.S. Avg  Commercial-Residual Oil,      !- Name
  FuelOil#2,                              !- Resource
  2011,                                   !- Escalation Start Year
  January,                                !- Escalation Start Month
  0.8469,                                 !- Year Escalation 1
  0.8257,                                 !- Year Escalation 2
  0.8681,                                 !- Year Escalation 3
  0.8988,                                 !- Year Escalation 4
  0.9289,                                 !- Year Escalation 5
  0.9604,                                 !- Year Escalation 6
  0.9897,                                 !- Year Escalation 7
  1.0075,                                 !- Year Escalation 8
  1.0314,                                 !- Year Escalation 9
  1.0554,                                 !- Year Escalation 10
  1.0861,                                 !- Year Escalation 11
  1.1278,                                 !- Year Escalation 12
  1.1497,                                 !- Year Escalation 13
  1.1620,                                 !- Year Escalation 14
  1.1743,                                 !- Year Escalation 15
  1.1852,                                 !- Year Escalation 16
  1.1948,                                 !- Year Escalation 17
  1.2037,                                 !- Year Escalation 18
  1.2071,                                 !- Year Escalation 19
  1.2119,                                 !- Year Escalation 20
  1.2139,                                 !- Year Escalation 21
  1.2194,                                 !- Year Escalation 22
  1.2276,                                 !- Year Escalation 23
  1.2365,                                 !- Year Escalation 24
  1.2420,                                 !- Year Escalation 25
  1.2461,                                 !- Year Escalation 26
  1.2509,                                 !- Year Escalation 27
  1.2550,                                 !- Year Escalation 28
  1.2591,                                 !- Year Escalation 29
  1.2638;                                 !- Year Escalation 30

LifeCycleCost:UsePriceEscalation,
  U.S. Avg  Commercial-Natural gas,       !- Name
  NaturalGas,                             !- Resource
  2011,                                   !- Escalation Start Year
  January,                                !- Escalation Start Month
  0.9823,                                 !- Year Escalation 1
  0.9557,                                 !- Year Escalation 2
  0.9279,                                 !- Year Escalation 3
  0.9257,                                 !- Year Escalation 4
  0.9346,                                 !- Year Escalation 5
  0.9412,                                 !- Year Escalation 6
  0.9512,                                 !- Year Escalation 7
  0.9645,                                 !- Year Escalation 8
  0.9856,                                 !- Year Escalation 9
  1.0067,                                 !- Year Escalation 10
  1.0222,                                 !- Year Escalation 11
  1.0410,                                 !- Year Escalation 12
  1.0610,                                 !- Year Escalation 13
  1.0787,                                 !- Year Escalation 14
  1.0942,                                 !- Year Escalation 15
  1.1098,                                 !- Year Escalation 16
  1.1220,                                 !- Year Escalation 17
  1.1308,                                 !- Year Escalation 18
  1.1386,                                 !- Year Escalation 19
  1.1486,                                 !- Year Escalation 20
  1.1619,                                 !- Year Escalation 21
  1.1763,                                 !- Year Escalation 22
  1.1918,                                 !- Year Escalation 23
  1.2118,                                 !- Year Escalation 24
  1.2284,                                 !- Year Escalation 25
  1.2439,                                 !- Year Escalation 26
  1.2605,                                 !- Year Escalation 27
  1.2772,                                 !- Year Escalation 28
  1.2938,                                 !- Year Escalation 29
  1.3115;                                 !- Year Escalation 30

LifeCycleCost:UsePriceEscalation,
  U.S. Avg  Commercial-Coal,              !- Name
  Coal,                                   !- Resource
  2011,                                   !- Escalation Start Year
  January,                                !- Escalation Start Month
  0.9970,                                 !- Year Escalation 1
  1.0089,                                 !- Year Escalation 2
  1.0089,                                 !- Year Escalation 3
  0.9941,                                 !- Year Escalation 4
  0.9941,                                 !- Year Escalation 5
  1.0000,                                 !- Year Escalation 6
  1.0030,                                 !- Year Escalation 7
  1.0059,                                 !- Year Escalation 8
  1.0089,                                 !- Year Escalation 9
  1.0119,                                 !- Year Escalation 10
  1.0148,                                 !- Year Escalation 11
  1.0178,                                 !- Year Escalation 12
  1.0208,                                 !- Year Escalation 13
  1.0267,                                 !- Year Escalation 14
  1.0297,                                 !- Year Escalation 15
  1.0356,                                 !- Year Escalation 16
  1.0415,                                 !- Year Escalation 17
  1.0534,                                 !- Year Escalation 18
  1.0564,                                 !- Year Escalation 19
  1.0593,                                 !- Year Escalation 20
  1.0653,                                 !- Year Escalation 21
  1.0712,                                 !- Year Escalation 22
  1.0742,                                 !- Year Escalation 23
  1.0801,                                 !- Year Escalation 24
  1.0831,                                 !- Year Escalation 25
  1.0831,                                 !- Year Escalation 26
  1.0861,                                 !- Year Escalation 27
  1.0890,                                 !- Year Escalation 28
  1.0920,                                 !- Year Escalation 29
  1.0950;                                 !- Year Escalation 30

Building,
  DOE Ref 1980-2004-Service-ASHRAE 169-2006-1A, !- Name
  ,                                       !- North Axis {deg}
  ,                                       !- Terrain
  ,                                       !- Loads Convergence Tolerance Value
  ,                                       !- Temperature Convergence Tolerance Value {deltaC}
  ,                                       !- Solar Distribution
  ,                                       !- Maximum Number of Warmup Days
  ;                                       !- Minimum Number of Warmup Days

Zone,
  ZN_Office_ZN,                           !- Name
  ,                                       !- Direction of Relative North {deg}
  ,                                       !- X Origin {m}
  ,                                       !- Y Origin {m}
  ,                                       !- Z Origin {m}
  ,                                       !- Type
  ,                                       !- Multiplier
  ,                                       !- Ceiling Height {m}
  ,                                       !- Volume {m3}
  ,                                       !- Floor Area {m2}
  ,                                       !- Zone Inside Convection Algorithm
  ;                                       !- Zone Outside Convection Algorithm

BuildingSurface:Detailed,
  ZN_Office_Floor,                        !- Name
  Floor,                                  !- Surface Type
  ext-slab,                               !- Construction Name
  ZN_Office_ZN,                           !- Zone Name
  Ground,                                 !- Outside Boundary Condition
  ,                                       !- Outside Boundary Condition Object
  NoSun,                                  !- Sun Exposure
  NoWind,                                 !- Wind Exposure
  ,                                       !- View Factor to Ground
  ,                                       !- Number of Vertices
  8.2296, 0, 0,                           !- X,Y,Z Vertex 1 {m}
  0, 0, 0,                                !- X,Y,Z Vertex 2 {m}
  0, 15.24, 0,                            !- X,Y,Z Vertex 3 {m}
  8.2296, 15.24, 0;                       !- X,Y,Z Vertex 4 {m}

BuildingSurface:Detailed,
  ZN_Office_Roof,                         !- Name
  Roof,                                   !- Surface Type
  Typical Insulated Metal Building Roof R-10.0 adj roof insulation adj roof insulation, !- Construction Name
  ZN_Office_ZN,                           !- Zone Name
  Outdoors,                               !- Outside Boundary Condition
  ,                                       !- Outside Boundary Condition Object
  SunExposed,                             !- Sun Exposure
  WindExposed,                            !- Wind Exposure
  ,                                       !- View Factor to Ground
  ,                                       !- Number of Vertices
  0, 0, 4.572,                            !- X,Y,Z Vertex 1 {m}
  8.2296, 0, 4.572,                       !- X,Y,Z Vertex 2 {m}
  8.2296, 15.24, 4.572,                   !- X,Y,Z Vertex 3 {m}
  0, 15.24, 4.572;                        !- X,Y,Z Vertex 4 {m}

BuildingSurface:Detailed,
  ZN_Office_Wall_East,                    !- Name
  Wall,                                   !- Surface Type
  Typical Interior Wall,                  !- Construction Name
  ZN_Office_ZN,                           !- Zone Name
  Surface,                                !- Outside Boundary Condition
  ZN_Repair_Shop_Wall_West,               !- Outside Boundary Condition Object
  NoSun,                                  !- Sun Exposure
  NoWind,                                 !- Wind Exposure
  ,                                       !- View Factor to Ground
  ,                                       !- Number of Vertices
  8.2296, 0, 4.572,                       !- X,Y,Z Vertex 1 {m}
  8.2296, 0, 0,                           !- X,Y,Z Vertex 2 {m}
  8.2296, 15.24, 0,                       !- X,Y,Z Vertex 3 {m}
  8.2296, 15.24, 4.572;                   !- X,Y,Z Vertex 4 {m}

BuildingSurface:Detailed,
  ZN_Office_Wall_North,                   !- Name
  Wall,                                   !- Surface Type
  Typical Insulated Metal Building Wall R-4.17 adj ext wall insulation adj ext wall insulation, !- Construction Name
  ZN_Office_ZN,                           !- Zone Name
  Outdoors,                               !- Outside Boundary Condition
  ,                                       !- Outside Boundary Condition Object
  SunExposed,                             !- Sun Exposure
  WindExposed,                            !- Wind Exposure
  ,                                       !- View Factor to Ground
  ,                                       !- Number of Vertices
  8.2296, 15.24, 4.572,                   !- X,Y,Z Vertex 1 {m}
  8.2296, 15.24, 0,                       !- X,Y,Z Vertex 2 {m}
  0, 15.24, 0,                            !- X,Y,Z Vertex 3 {m}
  0, 15.24, 4.572;                        !- X,Y,Z Vertex 4 {m}

FenestrationSurface:Detailed,
  ZN_Office_Wall_North_Door,              !- Name
  Door,                                   !- Surface Type
  Typical Insulated Metal Door,           !- Construction Name
  ZN_Office_Wall_North,                   !- Building Surface Name
  ,                                       !- Outside Boundary Condition Object
  ,                                       !- View Factor to Ground
  ,                                       !- Shading Control Name
  ,                                       !- Frame and Divider Name
  1,                                      !- Multiplier
  ,                                       !- Number of Vertices
  7.26696257942767, 15.24, 2.10771911142225, !- X,Y,Z Vertex 1 {m}
  7.26696257942767, 15.24, 0.117380888577751, !- X,Y,Z Vertex 2 {m}
  6.44903742057233, 15.24, 0.117380888577751, !- X,Y,Z Vertex 3 {m}
  6.44903742057233, 15.24, 2.10771911142225; !- X,Y,Z Vertex 4 {m}

BuildingSurface:Detailed,
  ZN_Office_Wall_South,                   !- Name
  Wall,                                   !- Surface Type
  Typical Insulated Metal Building Wall R-4.17 adj ext wall insulation adj ext wall insulation, !- Construction Name
  ZN_Office_ZN,                           !- Zone Name
  Outdoors,                               !- Outside Boundary Condition
  ,                                       !- Outside Boundary Condition Object
  SunExposed,                             !- Sun Exposure
  WindExposed,                            !- Wind Exposure
  ,                                       !- View Factor to Ground
  ,                                       !- Number of Vertices
  0, 0, 4.572,                            !- X,Y,Z Vertex 1 {m}
  0, 0, 0,                                !- X,Y,Z Vertex 2 {m}
  8.2296, 0, 0,                           !- X,Y,Z Vertex 3 {m}
  8.2296, 0, 4.572;                       !- X,Y,Z Vertex 4 {m}

FenestrationSurface:Detailed,
  ZN_Office_Wall_South_Door,              !- Name
  GlassDoor,                              !- Surface Type
  U 1.22 SHGC 0.25 Simple Glazing Window, !- Construction Name
  ZN_Office_Wall_South,                   !- Building Surface Name
  ,                                       !- Outside Boundary Condition Object
  ,                                       !- View Factor to Ground
  ,                                       !- Shading Control Name
  ,                                       !- Frame and Divider Name
  1,                                      !- Multiplier
  ,                                       !- Number of Vertices
  6.44903742057233, 0, 2.10771911142225,  !- X,Y,Z Vertex 1 {m}
  6.44903742057233, 0, 0.117380888577751, !- X,Y,Z Vertex 2 {m}
  7.26696257942767, 0, 0.117380888577751, !- X,Y,Z Vertex 3 {m}
  7.26696257942767, 0, 2.10771911142225;  !- X,Y,Z Vertex 4 {m}

FenestrationSurface:Detailed,
  ZN_Office_Wall_South_Window_1,          !- Name
  Window,                                 !- Surface Type
  Window U-0.590673592 and Window SHGC 0.535787912, !- Construction Name
  ZN_Office_Wall_South,                   !- Building Surface Name
  ,                                       !- Outside Boundary Condition Object
  ,                                       !- View Factor to Ground
  ,                                       !- Shading Control Name
  ,                                       !- Frame and Divider Name
  1,                                      !- Multiplier
  ,                                       !- Number of Vertices
  1.03178088857775, 0, 2.32911326812688,  !- X,Y,Z Vertex 1 {m}
  1.03178088857775, 0, 0.993186731873116, !- X,Y,Z Vertex 2 {m}
  3.02211911142225, 0, 0.993186731873116, !- X,Y,Z Vertex 3 {m}
  3.02211911142225, 0, 2.32911326812688;  !- X,Y,Z Vertex 4 {m}

BuildingSurface:Detailed,
  ZN_Office_Wall_West,                    !- Name
  Wall,                                   !- Surface Type
  Typical Insulated Metal Building Wall R-4.17 adj ext wall insulation adj ext wall insulation, !- Construction Name
  ZN_Office_ZN,                           !- Zone Name
  Outdoors,                               !- Outside Boundary Condition
  ,                                       !- Outside Boundary Condition Object
  SunExposed,                             !- Sun Exposure
  WindExposed,                            !- Wind Exposure
  ,                                       !- View Factor to Ground
  ,                                       !- Number of Vertices
  0, 15.24, 4.572,                        !- X,Y,Z Vertex 1 {m}
  0, 15.24, 0,                            !- X,Y,Z Vertex 2 {m}
  0, 0, 0,                                !- X,Y,Z Vertex 3 {m}
  0, 0, 4.572;                            !- X,Y,Z Vertex 4 {m}

InternalMass,
  Service Office Mass,                    !- Name
  InteriorFurnishings,                    !- Construction Name
  ZN_Office_ZN,                           !- Zone Name
  250.838208;                             !- Surface Area {m2}

ZoneInfiltration:DesignFlowRate,
  ZN_Repair_Shop Infiltration,            !- Name
  ZN_Office_ZN,                           !- Zone or ZoneList Name
  Service_INFIL_SCH,                      !- Schedule Name
  Flow/ExteriorArea,                      !- Design Flow Rate Calculation Method
  ,                                       !- Design Flow Rate {m3/s}
  ,                                       !- Flow per Zone Floor Area {m3/s-m2}
  0.001133856,                            !- Flow per Exterior Surface Area {m3/s-m2}
  ,                                       !- Air Changes per Hour {1/hr}
  1,                                      !- Constant Term Coefficient
  ,                                       !- Temperature Term Coefficient
  0,                                      !- Velocity Term Coefficient
  ;                                       !- Velocity Squared Term Coefficient

ZoneControl:Thermostat,
  ZN_Office_ZN Thermostat,                !- Name
  ZN_Office_ZN,                           !- Zone or ZoneList Name
  ZN_Office_ZN Thermostat Schedule,       !- Control Type Schedule Name
  ThermostatSetpoint:DualSetpoint,        !- Control Object Type 1
  Thermostat Setpoint Dual Setpoint 1;    !- Control Name 1

Schedule:Compact,
  ZN_Office_ZN Thermostat Schedule,       !- Name
  ZN_Office_ZN Thermostat Schedule Type Limits, !- Schedule Type Limits Name
  Through: 12/31,                         !- Field 1
  For: AllDays,                           !- Field 2
  Until: 24:00,                           !- Field 3
  4;                                      !- Field 4

ScheduleTypeLimits,
  ZN_Office_ZN Thermostat Schedule Type Limits, !- Name
  0,                                      !- Lower Limit Value {BasedOnField A3}
  4,                                      !- Upper Limit Value {BasedOnField A3}
  DISCRETE;                               !- Numeric Type

ThermostatSetpoint:DualSetpoint,
  Thermostat Setpoint Dual Setpoint 1,    !- Name
  Service_BLDG_HT_SCH_OFFICE,             !- Heating Setpoint Temperature Schedule Name
  Service_BLDG_CL_SCH_OFFICE;             !- Cooling Setpoint Temperature Schedule Name

ScheduleTypeLimits,
  Temperature,                            !- Name
  ,                                       !- Lower Limit Value {BasedOnField A3}
  ,                                       !- Upper Limit Value {BasedOnField A3}
  Continuous,                             !- Numeric Type
  temperature;                            !- Unit Type

Schedule:Day:Interval,
  Schedule Day 57,                        !- Name
  Temperature,                            !- Schedule Type Limits Name
  No,                                     !- Interpolate to Timestep
  00:15,                                  !- Time 1 {hh:mm}
  15.5555555555556,                                   !- Value Until Time 1
  00:30,                                  !- Time 2 {hh:mm}
  15.5555555555556,                                   !- Value Until Time 2
  00:45,                                  !- Time 3 {hh:mm}
  15.5555555555556,                                   !- Value Until Time 3
  01:00,                                  !- Time 4 {hh:mm}
  15.5555555555556,                                   !- Value Until Time 4
  01:15,                                  !- Time 5 {hh:mm}
  15.5555555555556,                                   !- Value Until Time 5
  01:30,                                  !- Time 6 {hh:mm}
  15.5555555555556,                                   !- Value Until Time 6
  01:45,                                  !- Time 7 {hh:mm}
  15.5555555555556,                                   !- Value Until Time 7
  02:00,                                  !- Time 8 {hh:mm}
  15.5555555555556,                                   !- Value Until Time 8
  02:15,                                  !- Time 9 {hh:mm}
  15.5555555555556,                                   !- Value Until Time 9
  02:30,                                  !- Time 10 {hh:mm}
  15.5555555555556,                                   !- Value Until Time 10
  02:45,                                  !- Time 11 {hh:mm}
  15.5555555555556,                                   !- Value Until Time 11
  03:00,                                  !- Time 12 {hh:mm}
  15.5555555555556,                                   !- Value Until Time 12
  03:15,                                  !- Time 13 {hh:mm}
  15.5555555555556,                                   !- Value Until Time 13
  03:30,                                  !- Time 14 {hh:mm}
  15.5555555555556,                                   !- Value Until Time 14
  03:45,                                  !- Time 15 {hh:mm}
  15.5555555555556,                                   !- Value Until Time 15
  04:00,                                  !- Time 16 {hh:mm}
  15.5555555555556,                                   !- Value Until Time 16
  04:15,                                  !- Time 17 {hh:mm}
  15.5555555555556,                                   !- Value Until Time 17
  04:30,                                  !- Time 18 {hh:mm}
  15.5555555555556,                                   !- Value Until Time 18
  04:45,                                  !- Time 19 {hh:mm}
  15.5555555555556,                                   !- Value Until Time 19
  05:00,                                  !- Time 20 {hh:mm}
  15.5555555555556,                                   !- Value Until Time 20
  05:15,                                  !- Time 21 {hh:mm}
  15.5555555555556,                                   !- Value Until Time 21
  05:30,                                  !- Time 22 {hh:mm}
  15.5555555555556,                                   !- Value Until Time 22
  05:45,                                  !- Time 23 {hh:mm}
  15.5555555555556,                                   !- Value Until Time 23
  06:00,                                  !- Time 24 {hh:mm}
  15.5555555555556,                                   !- Value Until Time 24
  06:15,                                  !- Time 25 {hh:mm}
  15.5555555555556,                                   !- Value Until Time 25
  06:30,                                  !- Time 26 {hh:mm}
  15.5555555555556,                                   !- Value Until Time 26
  06:45,                                  !- Time 27 {hh:mm}
  15.5555555555556,                                   !- Value Until Time 27
  07:00,                                  !- Time 28 {hh:mm}
  15.5555555555556,                                   !- Value Until Time 28
  07:15,                                  !- Time 29 {hh:mm}
  15.5555555555556,                                   !- Value Until Time 29
  07:30,                                  !- Time 30 {hh:mm}
  15.5555555555556,                                   !- Value Until Time 30
  07:45,                                  !- Time 31 {hh:mm}
  15.5555555555556,                                   !- Value Until Time 31
  08:00,                                  !- Time 32 {hh:mm}
  15.5555555555556,                                   !- Value Until Time 32
  08:15,                                  !- Time 33 {hh:mm}
  15.5555555555556,                                   !- Value Until Time 33
  08:30,                                  !- Time 34 {hh:mm}
  15.5555555555556,                                   !- Value Until Time 34
  08:45,                                  !- Time 35 {hh:mm}
  15.5555555555556,                                   !- Value Until Time 35
  09:00,                                  !- Time 36 {hh:mm}
  15.5555555555556,                                   !- Value Until Time 36
  09:15,                                  !- Time 37 {hh:mm}
  15.5555555555556,                                   !- Value Until Time 37
  09:30,                                  !- Time 38 {hh:mm}
  15.5555555555556,                                   !- Value Until Time 38
  09:45,                                  !- Time 39 {hh:mm}
  15.5555555555556,                                   !- Value Until Time 39
  10:00,                                  !- Time 40 {hh:mm}